**************************
*** CDP Mat Definition ***
**************************
**E: 20000.0, S_cu: 50.0, e_cu: 0.003, e_63: 0.01, Alpha: 2.7, S_tu: 8.0, e_end: 0.02, Beta: 1.0**
*Material, name=CDP
*Density
2.4e-09
*Elastic
20000.0, 0.2
*Concrete Damaged Plasticity, REF LENGTH=100.0
40., 0.1, 1.16, 0.66667, 0.001
*Concrete Compression Hardening
4.000000e+01,0.000000e+00
4.097500e+01,1.250000e-06
4.190000e+01,5.000000e-06
4.277500e+01,1.125000e-05
4.360000e+01,2.000000e-05
4.437500e+01,3.125000e-05
4.510000e+01,4.500000e-05
4.577500e+01,6.125000e-05
4.640000e+01,8.000000e-05
4.697500e+01,1.012500e-04
4.750000e+01,1.250000e-04
4.797500e+01,1.512500e-04
4.840000e+01,1.800000e-04
4.877500e+01,2.112500e-04
4.910000e+01,2.450000e-04
4.937500e+01,2.812500e-04
4.960000e+01,3.200000e-04
4.977500e+01,3.612500e-04
4.990000e+01,4.050000e-04
4.997500e+01,4.512500e-04
** ... 50 like lines cut
*Concrete Tension Stiffening, type=DISPLACEMENT
8.000000e+00,0.000000e+00
7.838367e+00,4.080816e-02
7.676735e+00,8.161633e-02
7.515102e+00,1.224245e-01
7.353469e+00,1.632327e-01
7.191837e+00,2.040408e-01
7.030204e+00,2.448490e-01
6.868571e+00,2.856571e-01
6.706939e+00,3.264653e-01
6.545306e+00,3.672735e-01
6.383673e+00,4.080816e-01
6.222041e+00,4.488898e-01
6.060408e+00,4.896980e-01
5.898776e+00,5.305061e-01
5.737143e+00,5.713143e-01
5.575510e+00,6.121224e-01
5.413878e+00,6.529306e-01
5.252245e+00,6.937388e-01
5.090612e+00,7.345469e-01
4.928980e+00,7.753551e-01
** ... 30 like lines cut
*Concrete Compression Damage, tension recovery=0.1
0.000000e+00,0.000000e+00
0.000000e+00,1.250000e-06
0.000000e+00,5.000000e-06
0.000000e+00,1.125000e-05
0.000000e+00,2.000000e-05
0.000000e+00,3.125000e-05
0.000000e+00,4.500000e-05
0.000000e+00,6.125000e-05
0.000000e+00,8.000000e-05
0.000000e+00,1.012500e-04
0.000000e+00,1.250000e-04
0.000000e+00,1.512500e-04
0.000000e+00,1.800000e-04
0.000000e+00,2.112500e-04
0.000000e+00,2.450000e-04
0.000000e+00,2.812500e-04
0.000000e+00,3.200000e-04
0.000000e+00,3.612500e-04
0.000000e+00,4.050000e-04
0.000000e+00,4.512500e-04
** ... 50 like lines cut
*Concrete Tension Damage, type=DISPLACEMENT, compression recovery=0.3
0.000000e+00,0.000000e+00
2.020408e-02,4.080816e-02
4.040816e-02,8.161633e-02
6.061224e-02,1.224245e-01
8.081633e-02,1.632327e-01
1.010204e-01,2.040408e-01
1.212245e-01,2.448490e-01
1.414286e-01,2.856571e-01
1.616327e-01,3.264653e-01
1.818367e-01,3.672735e-01
2.020408e-01,4.080816e-01
2.222449e-01,4.488898e-01
2.424490e-01,4.896980e-01
2.626531e-01,5.305061e-01
2.828571e-01,5.713143e-01
3.030612e-01,6.121224e-01
3.232653e-01,6.529306e-01
3.434694e-01,6.937388e-01
3.636735e-01,7.345469e-01
3.838776e-01,7.753551e-01
** ... 30 like lines cut
*************************
*** End of Definition ***
*************************
