*Heading
** Generated by: Abaqus/CAE 2022.HF1
*Preprint, echo=NO, model=NO, history=NO, contact=NO
**
*Parameter
DT = 2.5E-3
Vis_Pressure_factor = 0.025
Damping_Ratio = 0.01
Output_dt = 0.5
**
** Viscous Pressure Calculation **
**
rho = 2.4E-9
E = 20000.0
v = 0.2
cd = sqrt(E*(1-v)/(rho*(1+v)*(1-2*v)))
VP = Vis_Pressure_factor*rho*cd
**
** PARTS
**
*Part, name=Model-RC750
*Node
      1,        -340.,           0.,        4600.
      2,        -340.,           0.,        4100.
      3,           0.,        -340.,        4100.
      4,           0.,        -340.,        4600.
      5,        -310.,           0.,        4600.
      6,        -310.,           0.,        4100.
      7,           0.,        -310.,        4100.
      8,           0.,        -310.,        4600.
      9,           0.,         340.,        4600.
     10,           0.,         340.,        4100.
     11,           0.,         310.,        4600.
     12,           0.,         310.,        4100.
     13,         340.,           0.,        4600.
     14,         340.,           0.,        4100.
     15,         310.,           0.,        4600.
     16,         310.,           0.,        4100.
     17,        -375.,           0.,        4600.
     18,        -375.,           0.,        4100.
     19,           0.,        -375.,        4100.
     20,           0.,        -375.,        4600.
** ... 18450 like lines cut
*Element, type=C3D8R
 1,    5,  114, 1619,  137,    1,   90, 1587,  113
 2,  114,  115, 1620, 1619,   90,   91, 1588, 1587
 3,  115,  116, 1621, 1620,   91,   92, 1589, 1588
 4,  116,  117, 1622, 1621,   92,   93, 1590, 1589
 5,  117,    6,  118, 1622,   93,    2,   94, 1590
 6,  137, 1619, 1623,  136,  113, 1587, 1591,  112
 7, 1619, 1620, 1624, 1623, 1587, 1588, 1592, 1591
 8, 1620, 1621, 1625, 1624, 1588, 1589, 1593, 1592
 9, 1621, 1622, 1626, 1625, 1589, 1590, 1594, 1593
10, 1622,  118,  119, 1626, 1590,   94,   95, 1594
11,  136, 1623, 1627,  135,  112, 1591, 1595,  111
12, 1623, 1624, 1628, 1627, 1591, 1592, 1596, 1595
13, 1624, 1625, 1629, 1628, 1592, 1593, 1597, 1596
14, 1625, 1626, 1630, 1629, 1593, 1594, 1598, 1597
15, 1626,  119,  120, 1630, 1594,   95,   96, 1598
16,  135, 1627, 1631,  134,  111, 1595, 1599,  110
17, 1627, 1628, 1632, 1631, 1595, 1596, 1600, 1599
18, 1628, 1629, 1633, 1632, 1596, 1597, 1601, 1600
19, 1629, 1630, 1634, 1633, 1597, 1598, 1602, 1601
20, 1630,  120,  121, 1634, 1598,   96,   97, 1602
** ... 16332 like lines cut
*Element, type=C3D6
11093,  8224,  8226,  8234, 14619, 14621, 14629
11094, 14619, 14621, 14629, 14632, 14634, 14642
11095, 14632, 14634, 14642, 14645, 14647, 14655
11096, 14645, 14647, 14655, 14658, 14660, 14668
11097, 14658, 14660, 14668,  8237,  8239,  8247
11318,  8224,  8234,  8226, 14671, 14681, 14673
11319, 14671, 14681, 14673, 14684, 14694, 14686
11320, 14684, 14694, 14686, 14697, 14707, 14699
11321, 14697, 14707, 14699, 14710, 14720, 14712
11322, 14710, 14720, 14712,  8282,  8292,  8284
11323,  8327,  8329,  8337, 14723, 14725, 14733
11324, 14723, 14725, 14733, 14736, 14738, 14746
11325, 14736, 14738, 14746, 14749, 14751, 14759
11326, 14749, 14751, 14759, 14762, 14764, 14772
11327, 14762, 14764, 14772,  8340,  8342,  8350
11548,  8327,  8337,  8329, 14775, 14785, 14777
11549, 14775, 14785, 14777, 14788, 14798, 14790
11550, 14788, 14798, 14790, 14801, 14811, 14803
11551, 14801, 14811, 14803, 14814, 14824, 14816
11552, 14814, 14824, 14816,  8385,  8395,  8387
** ... 20 like lines cut
*Nset, nset=Set-1
    27,    28,    29,    30,    31,    32,    33,    34,    35,    49,    50,    51,    52,    53,    54,    55
    80,    81,    82,    83,    84,    85,    86,    87,    88,    89,   408,   409,   410,   411,   412,   413
   414,   415,   492,   493,   494,   495,   496,   497,   498,   499,   576,   577,   578,   579,   580,   581
   582,   583,   660,   661,   662,   663,   664,   665,   666,   667,   706,   707,   708,   709,   710,   711
   712,   713,   714,   715,   716,   717,   718,   719,   720,   721,   760,   761,   762,   763,   764,   765
   766,   767,   768,   769,   770,   771,   772,   773,   774,   775,   776,   777,   778,   779,   780,   781
   782,   783,   784,   785,   786,   787,   788,   789,   790,   791,   792,   793,   960,   961,   962,   963
   964,   965,   966,   967,   968,   969,   970,   971,   972,   973,   974,   975,   976,   977,   978,   979
   980,   981,   982,   983,   984,   985,   986,   987,   988,   989,   990,   991,   992,   993,   994,   995
   996,   997,   998,   999,  1000,  1001,  1002,  1003,  1004,  1005,  1006,  1007,  1008,  1009,  1010,  1011
  1012,  1013,  1014,  1015,  1016,  1017,  1018,  1019,  1020,  1021,  1022,  1023,  1024,  1025,  1026,  1027
  1028,  1029,  1106,  1107,  1108,  1109,  1110,  1111,  1112,  1113,  1190,  1191,  1192,  1193,  1194,  1195
  1196,  1197,  1198,  1199,  1200,  1201,  1202,  1203,  1204,  1205,  1206,  1207,  1208,  1209,  1210,  1211
  1212,  1213,  1214,  1215,  1216,  1217,  1218,  1219,  1220,  1221,  1222,  1223,  1224,  1225,  1226,  1227
  1228,  1229,  1230,  1231,  1232,  1233,  1234,  1235,  1236,  1237,  1238,  1239,  1240,  1241,  1242,  1243
  1244,  1245,  1246,  1247,  1248,  1409,  1410,  1411,  1412,  1413,  1414,  1415,  1416,  1417,  1418,  1419
  1420,  1421,  1422,  1423,  1424,  1425,  1426,  1427,  1428,  1429,  1430,  1431,  1432,  1433,  1434,  1435
  1436,  1437,  1438,  1439,  1440,  1441,  1442,  1443,  1444,  1445,  1446,  1447,  1448,  1449,  1450,  1451
  1452,  1453,  1454,  1455,  1456,  1457,  1458,  1459,  1460,  1461,  1462,  1463,  1464,  1465,  1466,  1467
  1468,  1469,  1470,  1471,  1472,  1473,  1474,  1475,  1476,  1477,  1478,  1479,  1480,  1481,  1482,  1483
** ... 438 like lines cut
*Elset, elset=Set-1
  7809,  7810,  7811,  7812,  7813,  7814,  7815,  7816,  7817,  7818,  7819,  7820,  7821,  7822,  7823,  7824
  7825,  7826,  7827,  7828,  7829,  7830,  7831,  7832,  7833,  7834,  7835,  7836,  7837,  7838,  7839,  7840
  7841,  7842,  7843,  7844,  7845,  7846,  7847,  7848,  7849,  7850,  7851,  7852,  7853,  7854,  7855,  7856
  7857,  7858,  7859,  7860,  7861,  7862,  7863,  7864,  7865,  7866,  7867,  7868,  7869,  7870,  7871,  7872
  7873,  7874,  7875,  7876,  7877,  7878,  7879,  7880,  7881,  7882,  7883,  7884,  7885,  7886,  7887,  7888
  7889,  7890,  7891,  7892,  7893,  7894,  7895,  7896,  7897,  7898,  7899,  7900,  7901,  7902,  7903,  7904
  7905,  7906,  7907,  7908,  7909,  7910,  7911,  7912,  7913,  7914,  7915,  7916,  7917,  7918,  7919,  7920
  7921,  7922,  7923,  7924,  7925,  7926,  7927,  7928,  7929,  7930,  7931,  7932,  7933,  7934,  7935,  7936
  7937,  7938,  7939,  7940,  7941,  7942,  7943,  7944,  7945,  7946,  7947,  7948,  7949,  7950,  7951,  7952
  7953,  7954,  7955,  7956,  7957,  7958,  7959,  7960,  7961,  7962,  7963,  7964,  7965,  7966,  7967,  7968
  7969,  7970,  7971,  7972,  7973,  7974,  7975,  7976,  7977,  7978,  7979,  7980,  7981,  7982,  7983,  7984
  7985,  7986,  7987,  7988,  7989,  7990,  7991,  7992,  7993,  7994,  7995,  7996,  7997,  7998,  7999,  8000
  8001,  8002,  8003,  8004,  8005,  8006,  8007,  8008,  8009,  8010,  8011,  8012,  8013,  8014,  8015,  8016
  8017,  8018,  8019,  8020,  8021,  8022,  8023,  8024,  8025,  8026,  8027,  8028,  8029,  8030,  8031,  8032
  8033,  8034,  8035,  8036,  8037,  8038,  8039,  8040,  8041,  8042,  8043,  8044,  8045,  8046,  8047,  8048
  8049,  8050,  8051,  8052,  8053,  8054,  8055,  8056,  8057,  8058,  8059,  8060,  8061,  8062,  8063,  8064
  8065,  8066,  8067,  8068,  8069,  8070,  8071,  8072,  8073,  8074,  8075,  8076,  8077,  8078,  8079,  8080
  8081,  8082,  8083,  8084,  8085,  8086,  8087,  8088,  8089,  8090,  8091,  8092,  8093,  8094,  8095,  8096
  8097,  8098,  8099,  8100,  8101,  8102,  8103,  8104,  8105,  8106,  8107,  8108,  8109,  8110,  8111,  8112
  8113,  8114,  8115,  8116,  8117,  8118,  8119,  8120,  8121,  8122,  8123,  8124,  8125,  8126,  8127,  8128
** ... 372 like lines cut
*Nset, nset=Set-2
     1,     2,     3,     4,     5,     6,     7,     8,     9,    10,    11,    12,    13,    14,    15,    16
    17,    18,    19,    20,    21,    22,    23,    24,    25,    26,    27,    28,    29,    30,    31,    32
    33,    34,    35,    36,    37,    38,    39,    40,    41,    42,    43,    44,    45,    46,    47,    48
    51,    52,    53,    54,    56,    57,    58,    59,    60,    61,    62,    63,    64,    65,    66,    67
    68,    69,    70,    71,    72,    73,    74,    75,    76,    77,    78,    79,    90,    91,    92,    93
    94,    95,    96,    97,    98,    99,   100,   101,   102,   103,   104,   105,   106,   107,   108,   109
   110,   111,   112,   113,   114,   115,   116,   117,   118,   119,   120,   121,   122,   123,   124,   125
   126,   127,   128,   129,   130,   131,   132,   133,   134,   135,   136,   137,   138,   139,   140,   141
   142,   143,   144,   145,   146,   147,   148,   149,   150,   151,   152,   153,   154,   155,   156,   157
   158,   159,   160,   161,   162,   163,   164,   165,   166,   167,   168,   169,   170,   171,   172,   173
   174,   175,   176,   177,   178,   179,   180,   181,   182,   183,   184,   185,   186,   187,   188,   189
   190,   191,   192,   193,   194,   195,   196,   197,   198,   199,   200,   201,   202,   203,   204,   205
   206,   207,   208,   209,   210,   211,   212,   213,   214,   215,   216,   217,   218,   219,   220,   221
   222,   223,   224,   225,   226,   227,   228,   229,   230,   231,   232,   233,   234,   235,   236,   237
   238,   239,   240,   241,   242,   243,   244,   245,   246,   247,   248,   249,   250,   251,   252,   253
   254,   255,   256,   257,   258,   259,   260,   261,   262,   263,   264,   265,   266,   267,   268,   269
   270,   271,   272,   273,   274,   275,   276,   277,   278,   279,   280,   281,   282,   283,   284,   285
   286,   287,   288,   289,   290,   291,   292,   293,   294,   295,   296,   297,   298,   299,   300,   301
   302,   303,   304,   305,   306,   307,   308,   309,   310,   311,   312,   313,   314,   315,   316,   317
   318,   319,   320,   321,   322,   323,   324,   325,   326,   327,   328,   329,   330,   331,   332,   333
** ... 691 like lines cut
*Elset, elset=Set-2
     1,     2,     3,     4,     5,     6,     7,     8,     9,    10,    11,    12,    13,    14,    15,    16
    17,    18,    19,    20,    21,    22,    23,    24,    25,    26,    27,    28,    29,    30,    31,    32
    33,    34,    35,    36,    37,    38,    39,    40,    41,    42,    43,    44,    45,    46,    47,    48
    49,    50,    51,    52,    53,    54,    55,    56,    57,    58,    59,    60,    61,    62,    63,    64
    65,    66,    67,    68,    69,    70,    71,    72,    73,    74,    75,    76,    77,    78,    79,    80
    81,    82,    83,    84,    85,    86,    87,    88,    89,    90,    91,    92,    93,    94,    95,    96
    97,    98,    99,   100,   101,   102,   103,   104,   105,   106,   107,   108,   109,   110,   111,   112
   113,   114,   115,   116,   117,   118,   119,   120,   121,   122,   123,   124,   125,   126,   127,   128
   129,   130,   131,   132,   133,   134,   135,   136,   137,   138,   139,   140,   141,   142,   143,   144
   145,   146,   147,   148,   149,   150,   151,   152,   153,   154,   155,   156,   157,   158,   159,   160
   161,   162,   163,   164,   165,   166,   167,   168,   169,   170,   171,   172,   173,   174,   175,   176
   177,   178,   179,   180,   181,   182,   183,   184,   185,   186,   187,   188,   189,   190,   191,   192
   193,   194,   195,   196,   197,   198,   199,   200,   201,   202,   203,   204,   205,   206,   207,   208
   209,   210,   211,   212,   213,   214,   215,   216,   217,   218,   219,   220,   221,   222,   223,   224
   225,   226,   227,   228,   229,   230,   231,   232,   233,   234,   235,   236,   237,   238,   239,   240
   241,   242,   243,   244,   245,   246,   247,   248,   249,   250,   251,   252,   253,   254,   255,   256
   257,   258,   259,   260,   261,   262,   263,   264,   265,   266,   267,   268,   269,   270,   271,   272
   273,   274,   275,   276,   277,   278,   279,   280,   281,   282,   283,   284,   285,   286,   287,   288
   289,   290,   291,   292,   293,   294,   295,   296,   297,   298,   299,   300,   301,   302,   303,   304
   305,   306,   307,   308,   309,   310,   311,   312,   313,   314,   315,   316,   317,   318,   319,   320
** ... 614 like lines cut
*Nset, nset=Set-7
     1,     2,     3,     4,     5,     6,     7,     8,     9,    10,    11,    12,    13,    14,    15,    16
    17,    18,    19,    20,    21,    22,    23,    24,    25,    26,    27,    28,    29,    30,    31,    32
    33,    34,    35,    36,    37,    38,    39,    40,    41,    42,    43,    44,    45,    46,    47,    48
    49,    50,    51,    52,    53,    54,    55,    56,    57,    58,    59,    60,    61,    62,    63,    64
    65,    66,    67,    68,    69,    70,    71,    72,    73,    74,    75,    76,    77,    78,    79,    80
    81,    82,    83,    84,    85,    86,    87,    88,    89,    90,    91,    92,    93,    94,    95,    96
    97,    98,    99,   100,   101,   102,   103,   104,   105,   106,   107,   108,   109,   110,   111,   112
   113,   114,   115,   116,   117,   118,   119,   120,   121,   122,   123,   124,   125,   126,   127,   128
   129,   130,   131,   132,   133,   134,   135,   136,   137,   138,   139,   140,   141,   142,   143,   144
   145,   146,   147,   148,   149,   150,   151,   152,   153,   154,   155,   156,   157,   158,   159,   160
   161,   162,   163,   164,   165,   166,   167,   168,   169,   170,   171,   172,   173,   174,   175,   176
   177,   178,   179,   180,   181,   182,   183,   184,   185,   186,   187,   188,   189,   190,   191,   192
   193,   194,   195,   196,   197,   198,   199,   200,   201,   202,   203,   204,   205,   206,   207,   208
   209,   210,   211,   212,   213,   214,   215,   216,   217,   218,   219,   220,   221,   222,   223,   224
   225,   226,   227,   228,   229,   230,   231,   232,   233,   234,   235,   236,   237,   238,   239,   240
   241,   242,   243,   244,   245,   246,   247,   248,   249,   250,   251,   252,   253,   254,   255,   256
   257,   258,   259,   260,   261,   262,   263,   264,   265,   266,   267,   268,   269,   270,   271,   272
   273,   274,   275,   276,   277,   278,   279,   280,   281,   282,   283,   284,   285,   286,   287,   288
   289,   290,   291,   292,   293,   294,   295,   296,   297,   298,   299,   300,   301,   302,   303,   304
   305,   306,   307,   308,   309,   310,   311,   312,   313,   314,   315,   316,   317,   318,   319,   320
** ... 643 like lines cut
*Elset, elset=Set-7
     1,     2,     3,     4,     5,     6,     7,     8,     9,    10,    11,    12,    13,    14,    15,    16
    17,    18,    19,    20,    21,    22,    23,    24,    25,    26,    27,    28,    29,    30,    31,    32
    33,    34,    35,    36,    37,    38,    39,    40,    41,    42,    43,    44,    45,    46,    47,    48
    49,    50,    51,    52,    53,    54,    55,    56,    57,    58,    59,    60,    61,    62,    63,    64
    65,    66,    67,    68,    69,    70,    71,    72,    73,    74,    75,    76,    77,    78,    79,    80
    81,    82,    83,    84,    85,    86,    87,    88,    89,    90,    91,    92,    93,    94,    95,    96
    97,    98,    99,   100,   101,   102,   103,   104,   105,   106,   107,   108,   109,   110,   111,   112
   113,   114,   115,   116,   117,   118,   119,   120,   121,   122,   123,   124,   125,   126,   127,   128
   129,   130,   131,   132,   133,   134,   135,   136,   137,   138,   139,   140,   141,   142,   143,   144
   145,   146,   147,   148,   149,   150,   151,   152,   153,   154,   155,   156,   157,   158,   159,   160
   161,   162,   163,   164,   165,   166,   167,   168,   169,   170,   171,   172,   173,   174,   175,   176
   177,   178,   179,   180,   181,   182,   183,   184,   185,   186,   187,   188,   189,   190,   191,   192
   193,   194,   195,   196,   197,   198,   199,   200,   201,   202,   203,   204,   205,   206,   207,   208
   209,   210,   211,   212,   213,   214,   215,   216,   217,   218,   219,   220,   221,   222,   223,   224
   225,   226,   227,   228,   229,   230,   231,   232,   233,   234,   235,   236,   237,   238,   239,   240
   241,   242,   243,   244,   245,   246,   247,   248,   249,   250,   251,   252,   253,   254,   255,   256
   257,   258,   259,   260,   261,   262,   263,   264,   265,   266,   267,   268,   269,   270,   271,   272
   273,   274,   275,   276,   277,   278,   279,   280,   281,   282,   283,   284,   285,   286,   287,   288
   289,   290,   291,   292,   293,   294,   295,   296,   297,   298,   299,   300,   301,   302,   303,   304
   305,   306,   307,   308,   309,   310,   311,   312,   313,   314,   315,   316,   317,   318,   319,   320
** ... 547 like lines cut
*Nset, nset=Set-8, generate
     1,  18470,      1
*Elset, elset=Set-8, generate
     1,  16392,      1
*Nset, nset=Set-36
     1,     2,     3,     4,     5,     6,     7,     8,     9,    10,    11,    12,    13,    14,    15,    16
    17,    18,    19,    20,    21,    22,    23,    24,    25,    26,    27,    28,    29,    30,    31,    32
    33,    34,    35,    36,    37,    38,    39,    40,    41,    42,    43,    44,    45,    46,    47,    48
    49,    50,    51,    52,    53,    54,    55,    56,    57,    58,    59,    60,    61,    62,    63,    64
    65,    66,    67,    68,    69,    70,    71,    73,    75,    76,    77,    78,    80,    81,    82,    83
    84,    85,    86,    87,    88,    89,    90,    91,    92,    93,    94,    95,    96,    97,    98,    99
   100,   101,   102,   103,   104,   105,   106,   107,   108,   109,   110,   111,   112,   113,   114,   115
   116,   117,   118,   119,   120,   121,   122,   123,   124,   125,   126,   127,   128,   129,   130,   131
   132,   133,   134,   135,   136,   137,   138,   139,   140,   141,   142,   143,   144,   145,   146,   147
   148,   149,   158,   159,   160,   161,   162,   163,   164,   165,   166,   167,   168,   169,   178,   179
   180,   181,   182,   183,   184,   185,   186,   187,   188,   189,   190,   191,   192,   193,   194,   195
   196,   197,   198,   199,   200,   201,   202,   203,   204,   205,   206,   207,   208,   209,   210,   211
   212,   213,   214,   215,   216,   217,   218,   219,   220,   221,   222,   223,   224,   225,   226,   227
   228,   229,   230,   231,   232,   233,   234,   235,   236,   237,   238,   239,   240,   241,   242,   243
   244,   245,   246,   247,   248,   249,   250,   251,   252,   253,   254,   255,   256,   257,   258,   259
   260,   261,   262,   263,   264,   265,   266,   267,   268,   269,   270,   271,   272,   273,   274,   275
   276,   277,   278,   279,   280,   281,   282,   283,   284,   285,   294,   295,   296,   297,   298,   299
   300,   301,   302,   303,   304,   305,   306,   307,   308,   309,   310,   311,   312,   313,   314,   315
   316,   317,   318,   319,   320,   321,   322,   323,   324,   325,   326,   327,   328,   329,   330,   331
   332,   333,   334,   335,   336,   337,   338,   339,   340,   341,   342,   343,   344,   345,   346,   347
** ... 988 like lines cut
*Elset, elset=Set-36
     1,     2,     3,     4,     5,     6,     7,     8,     9,    10,    11,    12,    13,    14,    15,    16
    17,    18,    19,    20,    21,    22,    23,    24,    25,    26,    27,    28,    29,    30,    31,    32
    33,    34,    35,    36,    37,    38,    39,    40,    41,    42,    43,    44,    45,    91,    92,    93
    94,    95,    96,    97,    98,    99,   100,   101,   102,   103,   104,   105,   106,   107,   108,   109
   110,   111,   112,   113,   114,   115,   116,   117,   118,   119,   120,   121,   122,   123,   124,   125
   126,   127,   128,   129,   130,   131,   132,   133,   134,   135,   136,   137,   138,   139,   140,   141
   142,   143,   144,   145,   146,   147,   148,   149,   150,   151,   152,   153,   154,   155,   156,   157
   158,   159,   160,   161,   162,   163,   164,   165,   166,   167,   168,   169,   170,   171,   172,   173
   174,   175,   176,   177,   178,   179,   180,   181,   182,   183,   184,   185,   186,   187,   188,   189
   190,   191,   192,   193,   194,   195,   196,   197,   198,   199,   200,   201,   202,   203,   204,   205
   206,   207,   208,   209,   210,   211,   212,   213,   214,   215,   216,   217,   218,   219,   220,   221
   222,   223,   224,   225,   271,   272,   273,   274,   275,   276,   277,   278,   279,   280,   281,   282
   283,   284,   285,   286,   287,   288,   289,   290,   291,   292,   293,   294,   295,   296,   297,   298
   299,   300,   301,   302,   303,   304,   305,   306,   307,   308,   309,   310,   311,   312,   313,   314
   315,   316,   317,   318,   319,   320,   321,   322,   323,   324,   325,   326,   327,   328,   329,   330
   331,   332,   333,   334,   335,   336,   337,   338,   339,   340,   341,   342,   343,   344,   345,   346
   347,   348,   349,   350,   351,   352,   353,   354,   355,   356,   357,   358,   359,   360,   506,   507
   508,   509,   510,   511,   512,   513,   514,   515,   516,   517,   518,   519,   520,   521,   522,   523
   524,   525,   526,   527,   528,   529,   530,   531,   532,   533,   534,   535,   536,   537,   538,   539
   540,   541,   542,   543,   544,   545,   546,   547,   548,   549,   550,   551,   552,   553,   554,   555
** ... 847 like lines cut
*Nset, nset=Set-64, generate
     1,  18470,      1
*Elset, elset=Set-64, generate
     1,  16392,      1
*Nset, nset=Conc, generate
     1,  18470,      1
*Elset, elset=Conc, generate
     1,  16392,      1
** Region: (CONC:Conc), (Controls:EC-1)
*Elset, elset=_I1, internal
     1,     2,     3,     4,     5,     6,     7,     8,     9,    10,    11,    12,    13,    14,    15,    16
    17,    18,    19,    20,    21,    22,    23,    24,    25,    26,    27,    28,    29,    30,    31,    32
    33,    34,    35,    36,    37,    38,    39,    40,    41,    42,    43,    44,    45,    46,    47,    48
    49,    50,    51,    52,    53,    54,    55,    56,    57,    58,    59,    60,    61,    62,    63,    64
    65,    66,    67,    68,    69,    70,    71,    72,    73,    74,    75,    76,    77,    78,    79,    80
    81,    82,    83,    84,    85,    86,    87,    88,    89,    90,    91,    92,    93,    94,    95,    96
    97,    98,    99,   100,   101,   102,   103,   104,   105,   106,   107,   108,   109,   110,   111,   112
   113,   114,   115,   116,   117,   118,   119,   120,   121,   122,   123,   124,   125,   126,   127,   128
   129,   130,   131,   132,   133,   134,   135,   136,   137,   138,   139,   140,   141,   142,   143,   144
   145,   146,   147,   148,   149,   150,   151,   152,   153,   154,   155,   156,   157,   158,   159,   160
   161,   162,   163,   164,   165,   166,   167,   168,   169,   170,   171,   172,   173,   174,   175,   176
   177,   178,   179,   180,   181,   182,   183,   184,   185,   186,   187,   188,   189,   190,   191,   192
   193,   194,   195,   196,   197,   198,   199,   200,   201,   202,   203,   204,   205,   206,   207,   208
   209,   210,   211,   212,   213,   214,   215,   216,   217,   218,   219,   220,   221,   222,   223,   224
   225,   226,   227,   228,   229,   230,   231,   232,   233,   234,   235,   236,   237,   238,   239,   240
   241,   242,   243,   244,   245,   246,   247,   248,   249,   250,   251,   252,   253,   254,   255,   256
   257,   258,   259,   260,   261,   262,   263,   264,   265,   266,   267,   268,   269,   270,   271,   272
   273,   274,   275,   276,   277,   278,   279,   280,   281,   282,   283,   284,   285,   286,   287,   288
   289,   290,   291,   292,   293,   294,   295,   296,   297,   298,   299,   300,   301,   302,   303,   304
   305,   306,   307,   308,   309,   310,   311,   312,   313,   314,   315,   316,   317,   318,   319,   320
** ... 1002 like lines cut
** Section: CONC
*Solid Section, elset=_I1, controls=EC-1, material=CDP
,
** Region: (CONC:Conc), (Controls:Default)
*Elset, elset=_I2, internal
 11093, 11094, 11095, 11096, 11097, 11318, 11319, 11320, 11321, 11322, 11323, 11324, 11325, 11326, 11327, 11548
 11549, 11550, 11551, 11552, 11553, 11554, 11555, 11556, 11557, 11668, 11669, 11670, 11671, 11672, 11893, 11894
 11895, 11896, 11897, 12008, 12009, 12010, 12011, 12012
** Section: CONC
*Solid Section, elset=_I2, material=CDP
,
*End Part
**  
*Part, name=P1
*Node
      1,           0.,           0.,           0.
      2,           0.,         245.,           0.
      3,           0.,         490.,           0.
      4,           0.,         735.,           0.
      5,           0.,         980.,           0.
      6,           0.,        1225.,           0.
      7,           0.,        1470.,           0.
      8,           0.,        1715.,           0.
      9,           0.,        1960.,           0.
     10,           0.,        2205.,           0.
     11,           0.,        2450.,           0.
     12,           0.,        2695.,           0.
     13,           0.,        2940.,           0.
     14,           0.,        3185.,           0.
     15,           0.,        3430.,           0.
     16,           0.,        3675.,           0.
     17,           0.,        3920.,           0.
     18,           0.,        4165.,           0.
     19,           0.,        4410.,           0.
     20,           0.,        4655.,           0.
     21,           0.,        4900.,           0.
*Element, type=B31
 1,  1,  2
 2,  2,  3
 3,  3,  4
 4,  4,  5
 5,  5,  6
 6,  6,  7
 7,  7,  8
 8,  8,  9
 9,  9, 10
10, 10, 11
11, 11, 12
12, 12, 13
13, 13, 14
14, 14, 15
15, 15, 16
16, 16, 17
17, 17, 18
18, 18, 19
19, 19, 20
20, 20, 21
*Nset, nset=Set-1, generate
  1,  21,   1
*Elset, elset=Set-1, generate
  1,  20,   1
*Nset, nset=Set-2, generate
  1,  21,   1
*Elset, elset=Set-2, generate
  1,  20,   1
*Nset, nset=Set-5, generate
  1,  21,   1
*Elset, elset=Set-5, generate
  1,  20,   1
*Nset, nset=Set-6, generate
  1,  21,   1
*Elset, elset=Set-6, generate
  1,  20,   1
** Section: Vertical_Beam  Profile: Beam_Vertical_Profile
*Beam Section, elset=Set-6, material=SD500, temperature=GRADIENTS, section=CIRC
9.5
0.,0.,-1.
*End Part
**  
*Part, name=P2
*Node
      1,        323.5,           0.,           0.
      2,   313.336639,   80.4511795,           0.
      3,   283.485199,   155.847321,           0.
      4,    235.82135,   221.450989,           0.
      5,   173.339966,   273.140076,           0.
      6,   99.9669952,   307.666779,           0.
      7,   20.3127327,   322.861633,           0.
      8,  -60.6178551,   317.769928,           0.
      9,  -137.739594,   292.711548,           0.
     10,  -206.206665,   249.261032,           0.
     11,   -261.71701,   190.148529,           0.
     12,  -300.782684,   119.088295,           0.
     13,  -320.949097,   40.5452995,           0.
     14,  -320.949097,  -40.5452995,           0.
     15,  -300.782684,  -119.088295,           0.
     16,   -261.71701,  -190.148529,           0.
     17,  -206.206665,  -249.261032,           0.
     18,  -137.739594,  -292.711548,           0.
     19,  -60.6178551,  -317.769928,           0.
     20,   20.3127327,  -322.861633,           0.
** ... 5 like lines cut
*Element, type=B31
 1,  1,  2
 2,  2,  3
 3,  3,  4
 4,  4,  5
 5,  5,  6
 6,  6,  7
 7,  7,  8
 8,  8,  9
 9,  9, 10
10, 10, 11
11, 11, 12
12, 12, 13
13, 13, 14
14, 14, 15
15, 15, 16
16, 16, 17
17, 17, 18
18, 18, 19
19, 19, 20
20, 20, 21
** ... 5 like lines cut
*Nset, nset=Set-1, generate
  1,  25,   1
*Elset, elset=Set-1, generate
  1,  25,   1
*Nset, nset=Set-2, generate
  1,  25,   1
*Elset, elset=Set-2, generate
  1,  25,   1
*Nset, nset=Set-5, generate
  1,  25,   1
*Elset, elset=Set-5, generate
  1,  25,   1
*Nset, nset=Set-6, generate
  1,  25,   1
*Elset, elset=Set-6, generate
  1,  25,   1
*Nset, nset=Set-10, generate
  1,  25,   1
*Elset, elset=Set-10, generate
  1,  25,   1
** Section: Horizontal_Beam  Profile: Beam_Vertical_Profile
*Beam Section, elset=Set-6, material=SD400, temperature=GRADIENTS, section=CIRC
9.5
0.,0.,-1.
*End Part
**  
**
** ASSEMBLY
**
*Assembly, name=Assembly
**  
*Instance, name=P1-1, part=P1
       307.5,         100.,           0.
*End Instance
**  
*Instance, name=P1-1-rad-2, part=P1
284.092956247221,         100., -117.675155452265
284.092956247221,         100., -117.675155452265, 284.092956247221, 101.000000018381, -117.675155452265, 22.5000004495572
*End Instance
**  
*Instance, name=P1-1-rad-3, part=P1
217.435335214863,         100., -217.435335214863
217.435335214863,         100., -217.435335214863, 217.435335214863, 101.000000013955, -217.435335214863, 45.0000000171299
*End Instance
**  
*Instance, name=P1-1-rad-4, part=P1
117.675155452265,         100., -284.092956247221
117.675155452265,         100., -284.092956247221, 117.675155452265, 100.999999992005, -284.092956247221, 67.5000026186089
*End Instance
**  
*Instance, name=P1-1-rad-5, part=P1
1.88289445368906e-14,         100.,       -307.5
1.88289445368906e-14,         100.,       -307.5, 1.88289445368906e-14, 101.000000012688,       -307.5, 89.9999992730282
*End Instance
**  
*Instance, name=P1-1-rad-6, part=P1
-117.675155452265,         100., -284.092956247221
-117.675155452265,         100., -284.092956247221, -117.675155452265, 100.999999992738, -284.092956247221, 112.499998189007
*End Instance
**  
*Instance, name=P1-1-rad-7, part=P1
-217.435335214863,         100., -217.435335214863
-217.435335214863,         100., -217.435335214863, -217.435335214863, 100.999999990362, -217.435335214863, 134.999999807967
*End Instance
**  
*Instance, name=P1-1-rad-8, part=P1
-284.092956247221,         100., -117.675155452265
-284.092956247221,         100., -117.675155452265, -284.092956247221, 101.000000008016, -117.675155452265, 157.499998971644
*End Instance
**  
*Instance, name=P1-1-rad-9, part=P1
      -307.5,         100., -3.76578890737811e-14
      -307.5,         100., -3.76578890737811e-14,       -307.5,         101., -3.76578890737811e-14,         180.
*End Instance
**  
*Instance, name=P1-1-rad-10, part=P1
-284.092956247221,         100., 117.675155452265
-284.092956247221,         100., 117.675155452265, -284.092956247221, 101.000000008016, 117.675155452265, 202.500001028356
*End Instance
**  
*Instance, name=P1-1-rad-11, part=P1
-217.435335214863,         100., 217.435335214863
-217.435335214863,         100., 217.435335214863, -217.435335214863, 100.999999990362, 217.435335214863, 225.000000192033
*End Instance
**  
*Instance, name=P1-1-rad-12, part=P1
-117.675155452265,         100., 284.092956247221
-117.675155452265,         100., 284.092956247221, -117.675155452265, 99.0000000072622, 284.092956247221, 112.499998189007
*End Instance
**  
*Instance, name=P1-1-rad-13, part=P1
-5.64868336106717e-14,         100.,        307.5
-5.64868336106717e-14,         100.,        307.5, -5.64868336106717e-14, 98.999999987312,        307.5, 89.9999992730282
*End Instance
**  
*Instance, name=P1-1-rad-14, part=P1
117.675155452265,         100., 284.092956247221
117.675155452265,         100., 284.092956247221, 117.675155452265, 99.0000000079947, 284.092956247221, 67.5000026186089
*End Instance
**  
*Instance, name=P1-1-rad-15, part=P1
217.435335214863,         100., 217.435335214863
217.435335214863,         100., 217.435335214863, 217.435335214863, 98.9999999860454, 217.435335214863, 45.0000000171299
*End Instance
**  
*Instance, name=P1-1-rad-16, part=P1
284.092956247221,         100., 117.675155452265
284.092956247221,         100., 117.675155452265, 284.092956247221, 98.9999999816186, 117.675155452265, 22.5000004495572
*End Instance
**  
*Instance, name=P2-1, part=P2
          0.,         625.,           0.
          0.,         625.,           0., -1.00000001268805,         625.,           0., 89.9999992730282
*End Instance
**  
*Instance, name=P2-1-lin-1-2, part=P2
          0.,         775.,           0.
          0.,         775.,           0., -1.00000001268805,         775.,           0., 89.9999992730282
*End Instance
**  
*Instance, name=P2-1-lin-1-3, part=P2
          0.,         925.,           0.
          0.,         925.,           0., -1.00000001268805,         925.,           0., 89.9999992730282
*End Instance
**  
*Instance, name=P2-1-lin-1-4, part=P2
          0.,        1075.,           0.
          0.,        1075.,           0., -1.00000001268805,        1075.,           0., 89.9999992730282
*End Instance
**  
*Instance, name=P2-1-lin-1-5, part=P2
          0.,        1225.,           0.
          0.,        1225.,           0., -1.00000001268805,        1225.,           0., 89.9999992730282
*End Instance
**  
*Instance, name=P2-1-lin-1-6, part=P2
          0.,        1375.,           0.
          0.,        1375.,           0., -1.00000001268805,        1375.,           0., 89.9999992730282
*End Instance
**  
*Instance, name=P2-1-lin-1-7, part=P2
          0.,        1525.,           0.
          0.,        1525.,           0., -1.00000001268805,        1525.,           0., 89.9999992730282
*End Instance
**  
*Instance, name=P2-1-lin-1-8, part=P2
          0.,        1675.,           0.
          0.,        1675.,           0., -1.00000001268805,        1675.,           0., 89.9999992730282
*End Instance
**  
*Instance, name=P2-1-lin-1-9, part=P2
          0.,        1825.,           0.
          0.,        1825.,           0., -1.00000001268805,        1825.,           0., 89.9999992730282
*End Instance
**  
*Instance, name=P2-1-lin-1-10, part=P2
          0.,        1975.,           0.
          0.,        1975.,           0., -1.00000001268805,        1975.,           0., 89.9999992730282
*End Instance
**  
*Instance, name=P2-1-lin-1-10-lin-1-2, part=P2
          0.,        2175.,           0.
          0.,        2175.,           0., -1.00000001268805,        2175.,           0., 89.9999992730282
*End Instance
**  
*Instance, name=P2-1-lin-1-10-lin-1-3, part=P2
          0.,        2375.,           0.
          0.,        2375.,           0., -1.00000001268805,        2375.,           0., 89.9999992730282
*End Instance
**  
*Instance, name=P2-1-lin-1-10-lin-1-4, part=P2
          0.,        2575.,           0.
          0.,        2575.,           0., -1.00000001268805,        2575.,           0., 89.9999992730282
*End Instance
**  
*Instance, name=P2-1-lin-1-10-lin-1-5, part=P2
          0.,        2775.,           0.
          0.,        2775.,           0., -1.00000001268805,        2775.,           0., 89.9999992730282
*End Instance
**  
*Instance, name=P2-1-lin-1-10-lin-1-6, part=P2
          0.,        2975.,           0.
          0.,        2975.,           0., -1.00000001268805,        2975.,           0., 89.9999992730282
*End Instance
**  
*Instance, name=P2-1-lin-1-10-lin-1-7, part=P2
          0.,        3175.,           0.
          0.,        3175.,           0., -1.00000001268805,        3175.,           0., 89.9999992730282
*End Instance
**  
*Instance, name=P2-1-lin-1-10-lin-1-8, part=P2
          0.,        3375.,           0.
          0.,        3375.,           0., -1.00000001268805,        3375.,           0., 89.9999992730282
*End Instance
**  
*Instance, name=P2-1-lin-1-10-lin-1-9, part=P2
          0.,        3575.,           0.
          0.,        3575.,           0., -1.00000001268805,        3575.,           0., 89.9999992730282
*End Instance
**  
*Instance, name=P2-1-lin-1-10-lin-1-10, part=P2
          0.,        3775.,           0.
          0.,        3775.,           0., -1.00000001268805,        3775.,           0., 89.9999992730282
*End Instance
**  
*Instance, name=P2-1-lin-1-10-lin-1-11, part=P2
          0.,        3975.,           0.
          0.,        3975.,           0., -1.00000001268805,        3975.,           0., 89.9999992730282
*End Instance
**  
*Instance, name=P2-1-lin-1-10-lin-1-12, part=P2
          0.,        4175.,           0.
          0.,        4175.,           0., -1.00000001268805,        4175.,           0., 89.9999992730282
*End Instance
**  
*Instance, name=P2-1-lin-1-10-lin-1-13, part=P2
          0.,        4375.,           0.
          0.,        4375.,           0., -1.00000001268805,        4375.,           0., 89.9999992730282
*End Instance
**  
*Instance, name=P2-1-lin-1-10-lin-1-14, part=P2
          0.,        4575.,           0.
          0.,        4575.,           0., -1.00000001268805,        4575.,           0., 89.9999992730282
*End Instance
**  
*Instance, name=P2-1-lin-1-10-lin-1-15, part=P2
          0.,        4775.,           0.
          0.,        4775.,           0., -1.00000001268805,        4775.,           0., 89.9999992730282
*End Instance
**  
*Instance, name=Model-RC750-1, part=Model-RC750
          0.,           0.,           0.
          0.,           0.,           0., -1.00000001268805,           0.,           0., 89.9999992730282
*End Instance
**  
*Node
      1,           0.,        4600.,           0.
*Nset, nset=Bottom_Fix_Set, instance=Model-RC750-1
    49,    50,    55,    80,    81,    82,    83,    84,    85,    86,    87,    88,    89,   960,   961,   962
   963,   964,   965,   966,   967,   968,   969,   970,   971,   972,   973,   974,   975,   976,   977,   978
   979,   980,   981,   982,   983,   984,   985,   986,   987,   988,   989,   990,   991,   992,   993,   994
   995,   996,   997,   998,   999,  1000,  1001,  1002,  1003,  1004,  1005,  1006,  1007,  1008,  1009,  1010
  1011,  1012,  1013,  1014,  1015,  1016,  1017,  1018,  1019,  1020,  1021,  1022,  1023,  1024,  1025,  1026
  1027,  1028,  1029,  1214,  1215,  1216,  1217,  1218,  1219,  1220,  1221,  1222,  1223,  1224,  1225,  1226
  1227,  1228,  1229,  1230,  1231,  1232,  1233,  1234,  1235,  1236,  1237,  1238,  1239,  1240,  1241,  1242
  1243,  1244,  1245,  1246,  1247,  1248,  1409,  1410,  1411,  1412,  1413,  1414,  1415,  1416,  1417,  1418
  1419,  1420,  1421,  1422,  1423,  1424,  1425,  1426,  1427,  1428,  1429,  1430,  1431,  1432,  1433,  1434
  1435,  1436,  1437,  1438,  1439,  1440,  1441,  1442,  1443,  1444,  1445,  1446,  1447,  1448,  1449,  1450
  1451,  1452,  1453,  1454,  1455,  1456,  1457,  1458,  1459,  1460,  1461,  1462,  1463,  1464,  1465,  1466
  1467,  1468,  1469,  1470,  1471,  1472,  1473,  1474,  1475,  1476,  1477,  1478,  1479,  1480,  1481,  1482
  1483,  1484,  1485,  1486,  1487,  1488,  1489,  1490,  1491,  1492,  1493,  1494,  1495,  1496,  1497,  1498
  1499,  1500,  1501,  1502,  1503,  1504,  1505,  1506,  1507,  1508,  1509,  1510,  1511,  1512,  1513,  1514
  1515,  1516,  1517,  1518,  1519,  1520,  1521,  1522,  1523,  1524,  1525,  1526,  1527,  1528,  1529,  1530
  1531,  1532,  1533,  1534,  1535,  1536,  1537,  1538,  1539,  1540,  1541,  1542,  1543,  1544,  1545,  1546
  1547,  1548,  1549,  1550,  1551,  1552,  1553,  1554,  1555,  1556,  1557,  1558,  1559,  1560,  1561,  1562
  1563,  1564,  1565,  1566,  1567,  1568,  1569,  1570,  1571,  1572,  1573,  1574,  1575,  1576,  1577,  1578
  1579,  1580,  1581,  1582,  1583,  1584,  1585,  1586,  8123,  8124,  8125,  8126,  8127,  8128,  8129,  8130
  8131,  8132,  8133,  8134,  8135,  8136,  8137,  8138,  8139,  8140,  8141,  8142,  8143,  8144,  8145,  8146
** ... 70 like lines cut
*Elset, elset=Bottom_Fix_Set, instance=Model-RC750-1
  8133,  8134,  8135,  8136,  8137,  8138,  8139,  8140,  8141,  8142,  8143,  8144,  8145,  8146,  8147,  8148
  8149,  8150,  8151,  8152,  8153,  8154,  8155,  8156,  8157,  8158,  8159,  8160,  8161,  8162,  8163,  8164
  8165,  8166,  8167,  8168,  9897,  9898,  9899,  9900,  9901,  9902,  9903,  9904,  9905,  9906,  9907,  9908
  9909,  9910,  9911,  9912,  9913,  9914,  9915,  9916,  9917,  9918,  9919,  9920,  9921,  9922,  9923,  9924
  9925,  9926,  9927,  9928,  9929,  9930,  9931,  9932, 10977, 10978, 10979, 10980, 10981, 10982, 10983, 10984
 10985, 10986, 10987, 10988, 10989, 10990, 10991, 10992, 10993, 10994, 10995, 10996, 10997, 10998, 10999, 11000
 11001, 11002, 11003, 11004, 11005, 11006, 11007, 11008, 11009, 11010, 11011, 11012, 11013, 11014, 11015, 11016
 11017, 11018, 11019, 11020, 11021, 11022, 11023, 11024, 11025, 11026, 11027, 11028, 11029, 11030, 11031, 11032
 11033, 11034, 11035, 11036, 11037, 11038, 11039, 11040, 11041, 11042, 11043, 11044, 11045, 11046, 11047, 11048
 11049, 11050, 11051, 11052, 11053, 11054, 11055, 11056, 11057, 11058, 11059, 11060, 11061, 11062, 11063, 11064
 11065, 11066, 11067, 11068, 11069, 11070, 11071, 11072, 11073, 11074, 11075, 11076, 11077, 11078, 11079, 11080
 11081, 11082, 11083, 11084, 11085, 11086, 11087, 11088, 11089, 11090, 11091, 11092, 12019, 12021, 12027, 12029
 12034, 12039, 12041, 12049, 12051, 12052, 12053, 12054, 12056, 12058, 12059, 12060, 12062, 12065, 12066, 12074
 12078, 12079, 12080, 12081, 12082, 12084, 12086, 12088, 12090, 12091, 12092, 12093, 12098, 12099, 12101, 12105
 12109, 12111, 12112, 12118, 12119, 12121, 12123, 12129, 12130, 12131, 12137, 12139, 12140, 12142, 12143, 12144
 12147, 12151, 12152, 12154, 12156, 12158, 12159, 12161, 12162, 12165, 12176, 12179, 12180, 12181, 12187, 12190
 12191, 12194, 12205, 12208, 12457, 12459, 12465, 12467, 12472, 12477, 12479, 12487, 12489, 12490, 12491, 12492
 12494, 12496, 12497, 12498, 12500, 12503, 12504, 12512, 12516, 12517, 12518, 12519, 12520, 12522, 12524, 12526
 12528, 12529, 12530, 12531, 12536, 12537, 12539, 12543, 12547, 12549, 12550, 12556, 12557, 12559, 12561, 12567
 12568, 12569, 12575, 12577, 12578, 12580, 12581, 12582, 12585, 12589, 12590, 12592, 12594, 12596, 12597, 12599
** ... 60 like lines cut
*Nset, nset=Conc_Embedded, instance=Model-RC750-1
    1,    2,    3,    4,    5,    6,    7,    8,    9,   10,   11,   12,   13,   14,   15,   16
   27,   28,   29,   30,   31,   32,   33,   34,   36,   37,   38,   39,   40,   41,   42,   43
   49,   50,   90,   91,   92,   93,   94,   95,   96,   97,   98,   99,  100,  101,  102,  103
  104,  105,  106,  107,  108,  109,  110,  111,  112,  113,  114,  115,  116,  117,  118,  119
  120,  121,  122,  123,  124,  125,  126,  127,  128,  129,  130,  131,  132,  133,  134,  135
  136,  137,  138,  139,  140,  141,  142,  143,  144,  145,  146,  147,  148,  149,  150,  151
  152,  153,  154,  155,  156,  157,  158,  159,  160,  161,  162,  163,  164,  165,  166,  167
  168,  169,  170,  171,  172,  173,  174,  175,  176,  177,  178,  179,  180,  181,  182,  183
  184,  185,  186,  187,  188,  189,  190,  191,  192,  193,  194,  195,  196,  197,  198,  199
  200,  201,  202,  203,  204,  205,  206,  207,  208,  209,  210,  211,  212,  213,  214,  215
  216,  217,  218,  219,  220,  221,  222,  223,  224,  225,  226,  227,  228,  229,  230,  231
  232,  233,  234,  235,  236,  237,  238,  239,  240,  241,  242,  243,  244,  245,  246,  247
  248,  249,  370,  371,  372,  373,  374,  375,  376,  377,  378,  379,  380,  381,  382,  383
  384,  385,  386,  387,  388,  389,  390,  391,  392,  393,  394,  395,  396,  397,  398,  399
  400,  401,  402,  403,  404,  405,  406,  407,  408,  409,  410,  411,  412,  413,  414,  415
  416,  417,  418,  419,  420,  421,  422,  423,  424,  425,  426,  427,  428,  429,  430,  431
  432,  433,  434,  435,  436,  437,  438,  439,  440,  441,  442,  443,  444,  445,  446,  447
  448,  449,  450,  451,  452,  453,  454,  455,  456,  457,  458,  459,  460,  461,  462,  463
  464,  465,  466,  467,  468,  469,  470,  471,  472,  473,  474,  475,  476,  477,  478,  479
  480,  481,  482,  483,  484,  485,  486,  487,  488,  489,  490,  491,  492,  493,  494,  495
** ... 246 like lines cut
*Elset, elset=Conc_Embedded, instance=Model-RC750-1
    1,    2,    3,    4,    5,    6,    7,    8,    9,   10,   11,   12,   13,   14,   15,   16
   17,   18,   19,   20,   21,   22,   23,   24,   25,   26,   27,   28,   29,   30,   31,   32
   33,   34,   35,   36,   37,   38,   39,   40,   41,   42,   43,   44,   45,   46,   47,   48
   49,   50,   51,   52,   53,   54,   55,   56,   57,   58,   59,   60,   61,   62,   63,   64
   65,   66,   67,   68,   69,   70,   71,   72,   73,   74,   75,   76,   77,   78,   79,   80
   81,   82,   83,   84,   85,   86,   87,   88,   89,   90,  136,  137,  138,  139,  140,  141
  142,  143,  144,  145,  146,  147,  148,  149,  150,  151,  152,  153,  154,  155,  156,  157
  158,  159,  160,  161,  162,  163,  164,  165,  166,  167,  168,  169,  170,  171,  172,  173
  174,  175,  176,  177,  178,  179,  180,  941,  942,  943,  944,  945,  946,  947,  948,  949
  950,  951,  952,  953,  954,  955,  956,  957,  958,  959,  960,  961,  962,  963,  964,  965
  966,  967,  968,  969,  970,  971,  972,  973,  974,  975,  976,  977,  978,  979,  980,  981
  982,  983,  984,  985,  986,  987,  988,  989,  990,  991,  992,  993,  994,  995,  996,  997
  998,  999, 1000, 1001, 1002, 1003, 1004, 1005, 1006, 1007, 1008, 1009, 1010, 1011, 1012, 1013
 1014, 1015, 1016, 1017, 1018, 1019, 1020, 1021, 1022, 1023, 1024, 1025, 1026, 1027, 1028, 1029
 1030, 1031, 1032, 1033, 1034, 1035, 1036, 1037, 1038, 1039, 1040, 1041, 1042, 1043, 1044, 1045
 1046, 1047, 1048, 1049, 1050, 1051, 1052, 1053, 1054, 1055, 1056, 1057, 1058, 1059, 1060, 1061
 1062, 1063, 1064, 1065, 1066, 1067, 1068, 1069, 1070, 1071, 1072, 1073, 1074, 1075, 1076, 1077
 1078, 1079, 1080, 1081, 1082, 1083, 1084, 1085, 1086, 1087, 1088, 1089, 1090, 1091, 1092, 1093
 1094, 1095, 1096, 1097, 1098, 1099, 1100, 1101, 1102, 1103, 1104, 1105, 1106, 1107, 1108, 1109
 1110, 1111, 1112, 1113, 1114, 1115, 1116, 1117, 1118, 1119, 1120, 1121, 1122, 1123, 1124, 1125
** ... 110 like lines cut
*Nset, nset=Disp_measure_RP, instance=Model-RC750-1
 56,
*Nset, nset=Embedded, instance=P1-1, generate
  1,  21,   1
*Nset, nset=Embedded, instance=P1-1-rad-2, generate
  1,  21,   1
*Nset, nset=Embedded, instance=P1-1-rad-4, generate
  1,  21,   1
*Nset, nset=Embedded, instance=P1-1-rad-8, generate
  1,  21,   1
*Nset, nset=Embedded, instance=P1-1-rad-16, generate
  1,  21,   1
*Nset, nset=Embedded, instance=P2-1-lin-1-10-lin-1-7, generate
  1,  25,   1
*Nset, nset=Embedded, instance=P2-1-lin-1-8, generate
  1,  25,   1
*Nset, nset=Embedded, instance=P2-1-lin-1-10-lin-1-15, generate
  1,  25,   1
*Nset, nset=Embedded, instance=P1-1-rad-12, generate
  1,  21,   1
*Nset, nset=Embedded, instance=P2-1-lin-1-4, generate
  1,  25,   1
*Nset, nset=Embedded, instance=P2-1-lin-1-10-lin-1-11, generate
  1,  25,   1
*Nset, nset=Embedded, instance=P2-1-lin-1-10-lin-1-3, generate
  1,  25,   1
*Nset, nset=Embedded, instance=P1-1-rad-6, generate
  1,  21,   1
*Nset, nset=Embedded, instance=P1-1-rad-10, generate
  1,  21,   1
*Nset, nset=Embedded, instance=P2-1-lin-1-2, generate
  1,  25,   1
*Nset, nset=Embedded, instance=P2-1-lin-1-10-lin-1-9, generate
  1,  25,   1
*Nset, nset=Embedded, instance=P2-1-lin-1-10, generate
  1,  25,   1
*Nset, nset=Embedded, instance=P1-1-rad-14, generate
  1,  21,   1
*Nset, nset=Embedded, instance=P2-1-lin-1-6, generate
  1,  25,   1
*Nset, nset=Embedded, instance=P2-1-lin-1-10-lin-1-13, generate
  1,  25,   1
*Nset, nset=Embedded, instance=P2-1-lin-1-10-lin-1-5, generate
  1,  25,   1
*Nset, nset=Embedded, instance=P1-1-rad-3, generate
  1,  21,   1
*Nset, nset=Embedded, instance=P1-1-rad-5, generate
  1,  21,   1
*Nset, nset=Embedded, instance=P1-1-rad-9, generate
  1,  21,   1
*Nset, nset=Embedded, instance=P2-1, generate
  1,  25,   1
*Nset, nset=Embedded, instance=P2-1-lin-1-10-lin-1-8, generate
  1,  25,   1
*Nset, nset=Embedded, instance=P2-1-lin-1-9, generate
  1,  25,   1
*Nset, nset=Embedded, instance=P1-1-rad-13, generate
  1,  21,   1
*Nset, nset=Embedded, instance=P2-1-lin-1-5, generate
  1,  25,   1
*Nset, nset=Embedded, instance=P2-1-lin-1-10-lin-1-12, generate
  1,  25,   1
*Nset, nset=Embedded, instance=P2-1-lin-1-10-lin-1-4, generate
  1,  25,   1
*Nset, nset=Embedded, instance=P1-1-rad-7, generate
  1,  21,   1
*Nset, nset=Embedded, instance=P1-1-rad-11, generate
  1,  21,   1
*Nset, nset=Embedded, instance=P2-1-lin-1-3, generate
  1,  25,   1
*Nset, nset=Embedded, instance=P2-1-lin-1-10-lin-1-10, generate
  1,  25,   1
*Nset, nset=Embedded, instance=P2-1-lin-1-10-lin-1-2, generate
  1,  25,   1
*Nset, nset=Embedded, instance=P1-1-rad-15, generate
  1,  21,   1
*Nset, nset=Embedded, instance=P2-1-lin-1-7, generate
  1,  25,   1
*Nset, nset=Embedded, instance=P2-1-lin-1-10-lin-1-14, generate
  1,  25,   1
*Nset, nset=Embedded, instance=P2-1-lin-1-10-lin-1-6, generate
  1,  25,   1
*Elset, elset=Embedded, instance=P1-1, generate
  1,  20,   1
*Elset, elset=Embedded, instance=P1-1-rad-2, generate
  1,  20,   1
*Elset, elset=Embedded, instance=P1-1-rad-4, generate
  1,  20,   1
*Elset, elset=Embedded, instance=P1-1-rad-8, generate
  1,  20,   1
*Elset, elset=Embedded, instance=P1-1-rad-16, generate
  1,  20,   1
*Elset, elset=Embedded, instance=P2-1-lin-1-10-lin-1-7, generate
  1,  25,   1
*Elset, elset=Embedded, instance=P2-1-lin-1-8, generate
  1,  25,   1
*Elset, elset=Embedded, instance=P2-1-lin-1-10-lin-1-15, generate
  1,  25,   1
*Elset, elset=Embedded, instance=P1-1-rad-12, generate
  1,  20,   1
*Elset, elset=Embedded, instance=P2-1-lin-1-4, generate
  1,  25,   1
*Elset, elset=Embedded, instance=P2-1-lin-1-10-lin-1-11, generate
  1,  25,   1
*Elset, elset=Embedded, instance=P2-1-lin-1-10-lin-1-3, generate
  1,  25,   1
*Elset, elset=Embedded, instance=P1-1-rad-6, generate
  1,  20,   1
*Elset, elset=Embedded, instance=P1-1-rad-10, generate
  1,  20,   1
*Elset, elset=Embedded, instance=P2-1-lin-1-2, generate
  1,  25,   1
*Elset, elset=Embedded, instance=P2-1-lin-1-10-lin-1-9, generate
  1,  25,   1
*Elset, elset=Embedded, instance=P2-1-lin-1-10, generate
  1,  25,   1
*Elset, elset=Embedded, instance=P1-1-rad-14, generate
  1,  20,   1
*Elset, elset=Embedded, instance=P2-1-lin-1-6, generate
  1,  25,   1
*Elset, elset=Embedded, instance=P2-1-lin-1-10-lin-1-13, generate
  1,  25,   1
*Elset, elset=Embedded, instance=P2-1-lin-1-10-lin-1-5, generate
  1,  25,   1
*Elset, elset=Embedded, instance=P1-1-rad-3, generate
  1,  20,   1
*Elset, elset=Embedded, instance=P1-1-rad-5, generate
  1,  20,   1
*Elset, elset=Embedded, instance=P1-1-rad-9, generate
  1,  20,   1
*Elset, elset=Embedded, instance=P2-1, generate
  1,  25,   1
*Elset, elset=Embedded, instance=P2-1-lin-1-10-lin-1-8, generate
  1,  25,   1
*Elset, elset=Embedded, instance=P2-1-lin-1-9, generate
  1,  25,   1
*Elset, elset=Embedded, instance=P1-1-rad-13, generate
  1,  20,   1
*Elset, elset=Embedded, instance=P2-1-lin-1-5, generate
  1,  25,   1
*Elset, elset=Embedded, instance=P2-1-lin-1-10-lin-1-12, generate
  1,  25,   1
*Elset, elset=Embedded, instance=P2-1-lin-1-10-lin-1-4, generate
  1,  25,   1
*Elset, elset=Embedded, instance=P1-1-rad-7, generate
  1,  20,   1
*Elset, elset=Embedded, instance=P1-1-rad-11, generate
  1,  20,   1
*Elset, elset=Embedded, instance=P2-1-lin-1-3, generate
  1,  25,   1
*Elset, elset=Embedded, instance=P2-1-lin-1-10-lin-1-10, generate
  1,  25,   1
*Elset, elset=Embedded, instance=P2-1-lin-1-10-lin-1-2, generate
  1,  25,   1
*Elset, elset=Embedded, instance=P1-1-rad-15, generate
  1,  20,   1
*Elset, elset=Embedded, instance=P2-1-lin-1-7, generate
  1,  25,   1
*Elset, elset=Embedded, instance=P2-1-lin-1-10-lin-1-14, generate
  1,  25,   1
*Elset, elset=Embedded, instance=P2-1-lin-1-10-lin-1-6, generate
  1,  25,   1
*Nset, nset=RP_Measure
 1,
*Elset, elset=_Coupling_Surf_S2, internal, instance=Model-RC750-1
 11097, 11186, 11187, 11188, 11189, 11190, 11191, 11192, 11193, 11194, 11195, 11196, 11197, 11198, 11199, 11200
 11201, 11202, 11203, 11204, 11205, 11206, 11207, 11296, 11297, 11298, 11299, 11300, 11301, 11302, 11303, 11304
 11305, 11306, 11307, 11308, 11309, 11310, 11311, 11312, 11313, 11314, 11315, 11316, 11317, 11322, 11327, 11416
 11417, 11418, 11419, 11420, 11421, 11422, 11423, 11424, 11425, 11426, 11427, 11428, 11429, 11430, 11431, 11432
 11433, 11434, 11435, 11436, 11437, 11526, 11527, 11528, 11529, 11530, 11531, 11532, 11533, 11534, 11535, 11536
 11537, 11538, 11539, 11540, 11541, 11542, 11543, 11544, 11545, 11546, 11547, 11552, 11557, 11646, 11647, 11648
 11649, 11650, 11651, 11652, 11653, 11654, 11655, 11656, 11657, 11658, 11659, 11660, 11661, 11662, 11663, 11664
 11665, 11666, 11667, 11672, 11761, 11762, 11763, 11764, 11765, 11766, 11767, 11768, 11769, 11770, 11771, 11772
 11773, 11774, 11775, 11776, 11777, 11778, 11779, 11780, 11781, 11782, 11871, 11872, 11873, 11874, 11875, 11876
 11877, 11878, 11879, 11880, 11881, 11882, 11883, 11884, 11885, 11886, 11887, 11888, 11889, 11890, 11891, 11892
 11897, 11986, 11987, 11988, 11989, 11990, 11991, 11992, 11993, 11994, 11995, 11996, 11997, 11998, 11999, 12000
 12001, 12002, 12003, 12004, 12005, 12006, 12007, 12012
*Elset, elset=_Coupling_Surf_S3, internal, instance=Model-RC750-1
 11102, 11105, 11114, 11118, 11124, 11127, 11136, 11140, 11146, 11149, 11158, 11162, 11168, 11171, 11180, 11184
 11190, 11193, 11202, 11206, 11210, 11219, 11232, 11241, 11254, 11263, 11276, 11285, 11298, 11307, 11331, 11336
 11337, 11343, 11353, 11358, 11359, 11365, 11375, 11380, 11381, 11387, 11397, 11402, 11403, 11409, 11419, 11424
 11425, 11431, 11441, 11451, 11455, 11463, 11473, 11477, 11485, 11495, 11499, 11507, 11517, 11521, 11529, 11539
 11543, 11563, 11564, 11569, 11578, 11585, 11586, 11591, 11600, 11607, 11608, 11613, 11622, 11629, 11630, 11635
 11644, 11651, 11652, 11657, 11666, 11676, 11678, 11681, 11687, 11693, 11698, 11700, 11703, 11709, 11715, 11720
 11722, 11725, 11731, 11737, 11742, 11744, 11747, 11753, 11759, 11764, 11766, 11769, 11775, 11781, 11784, 11786
 11800, 11806, 11808, 11822, 11828, 11830, 11844, 11850, 11852, 11866, 11872, 11874, 11888, 11901, 11910, 11923
 11932, 11945, 11954, 11967, 11976, 11989, 11998
*Elset, elset=_Coupling_Surf_S6, internal, instance=Model-RC750-1
 11100, 11109, 11122, 11131, 11144, 11153, 11166, 11175, 11188, 11197, 11212, 11215, 11224, 11228, 11234, 11237
 11246, 11250, 11256, 11259, 11268, 11272, 11278, 11281, 11290, 11294, 11300, 11303, 11312, 11316, 11331, 11341
 11345, 11353, 11363, 11367, 11375, 11385, 11389, 11397, 11407, 11411, 11419, 11429, 11433, 11441, 11446, 11447
 11453, 11463, 11468, 11469, 11475, 11485, 11490, 11491, 11497, 11507, 11512, 11513, 11519, 11529, 11534, 11535
 11541, 11561, 11570, 11583, 11592, 11605, 11614, 11627, 11636, 11649, 11658, 11674, 11676, 11690, 11696, 11698
 11712, 11718, 11720, 11734, 11740, 11742, 11756, 11762, 11764, 11778, 11786, 11788, 11791, 11797, 11803, 11808
 11810, 11813, 11819, 11825, 11830, 11832, 11835, 11841, 11847, 11852, 11854, 11857, 11863, 11869, 11874, 11876
 11879, 11885, 11891, 11903, 11904, 11909, 11918, 11925, 11926, 11931, 11940, 11947, 11948, 11953, 11962, 11969
 11970, 11975, 11984, 11991, 11992, 11997, 12006
*Elset, elset=_Coupling_Surf_S4, internal, instance=Model-RC750-1
 11108, 11130, 11152, 11174, 11196, 11211, 11218, 11227, 11233, 11240, 11249, 11255, 11262, 11271, 11277, 11284
 11293, 11299, 11306, 11315, 11443, 11444, 11458, 11465, 11466, 11480, 11487, 11488, 11502, 11509, 11510, 11524
 11531, 11532, 11546, 11569, 11591, 11613, 11635, 11657, 11787, 11802, 11809, 11824, 11831, 11846, 11853, 11868
 11875, 11890, 11907, 11912, 11919, 11929, 11934, 11941, 11951, 11956, 11963, 11973, 11978, 11985, 11995, 12000
 12007,
*Elset, elset=_Coupling_Surf_S5, internal, instance=Model-RC750-1
 11101, 11108, 11117, 11123, 11130, 11139, 11145, 11152, 11161, 11167, 11174, 11183, 11189, 11196, 11205, 11218
 11240, 11262, 11284, 11306, 11333, 11334, 11348, 11355, 11356, 11370, 11377, 11378, 11392, 11399, 11400, 11414
 11421, 11422, 11436, 11567, 11572, 11579, 11589, 11594, 11601, 11611, 11616, 11623, 11633, 11638, 11645, 11655
 11660, 11667, 11677, 11692, 11699, 11714, 11721, 11736, 11743, 11758, 11765, 11780, 11909, 11931, 11953, 11975
 11997,
*Surface, type=ELEMENT, name=Coupling_Surf
_Coupling_Surf_S2, S2
_Coupling_Surf_S3, S3
_Coupling_Surf_S6, S6
_Coupling_Surf_S4, S4
_Coupling_Surf_S5, S5
*Elset, elset=_Vis_Press_S5, internal, instance=Model-RC750-1, generate
 8169,  8519,     1
*Elset, elset=_Vis_Press_S4, internal, instance=Model-RC750-1, generate
 8520,  9221,     1
*Elset, elset=_Vis_Press_S3, internal, instance=Model-RC750-1, generate
 9222,  9572,     1
*Surface, type=ELEMENT, name=Vis_Press
_Vis_Press_S5, S5
_Vis_Press_S4, S4
_Vis_Press_S3, S3
** Constraint: Embedded
*Embedded Element, exterior tolerance=0.5
Embedded
** Constraint: Kinematic_Coupling
*Coupling, constraint name=Kinematic_Coupling, ref node=RP_Measure, surface=Coupling_Surf
*Kinematic
*End Assembly
** 
** ELEMENT CONTROLS
** 
*Section Controls, name=EC-1, ELEMENT DELETION=YES
1., 1., 1.
*Amplitude, name=Amp_RC750, smooth=0.2
             0.,              0.,              5.,         2.78115,             10.,         5.29007,             15.,         7.28115
            20.,         8.55951,             25.,              9.,             30.,         8.55951,             35.,         7.28115
            40.,         5.29007,             45.,         2.78115,             55.,        -2.78115,             60.,        -5.29007
            65.,        -7.28115,             70.,        -8.55951,             75.,             -9.,             80.,        -8.55951
            85.,        -7.28115,             90.,        -5.29007,             95.,        -2.78115,            105.,         5.56231
           110.,         10.5801,            115.,         14.5623,            120.,          17.119,            125.,             18.
           130.,          17.119,            135.,         14.5623,            140.,         10.5801,            145.,         5.56231
           155.,        -5.56231,            160.,        -10.5801,            165.,        -14.5623,            170.,         -17.119
           175.,            -18.,            180.,         -17.119,            185.,        -14.5623,            190.,        -10.5801
           195.,        -5.56231,            205.,         8.34346,            210.,         15.8702,            215.,         21.8435
           220.,         25.6785,            225.,             27.,            230.,         25.6785,            235.,         21.8435
           240.,         15.8702,            245.,         8.34346,            255.,        -8.34346,            260.,        -15.8702
           265.,        -21.8435,            270.,        -25.6785,            275.,            -27.,            280.,        -25.6785
           285.,        -21.8435,            290.,        -15.8702,            295.,        -8.34346,            305.,         11.1246
           310.,         21.1603,            315.,         29.1246,            320.,          34.238,            325.,             36.
           330.,          34.238,            335.,         29.1246,            340.,         21.1603,            345.,         11.1246
           355.,        -11.1246,            360.,        -21.1603,            365.,        -29.1246,            370.,         -34.238
           375.,            -36.,            380.,         -34.238,            385.,        -29.1246,            390.,        -21.1603
           395.,        -11.1246,            405.,         16.6869,            410.,         31.7404,            415.,         43.6869
           420.,         51.3571,            425.,             54.,            430.,         51.3571,            435.,         43.6869
** ... 21 like lines cut
*Amplitude, name=Static, definition=SMOOTH STEP
             0.,              0.,              1.,              1.
** 
** MATERIALS
** 
** 
** CDP model 
*Include, input=CDP_Mat.inp
*DAMPING, BAND LIMITED=<Damping_Ratio>, LOW FREQUENCY CUTOFF=0.01 , HIGH FREQUENCY CUTOFF=1E9
**
*Material, name=SD400
*Density
 7.85e-09,
*DAMPING, BAND LIMITED=<Damping_Ratio>, LOW FREQUENCY CUTOFF=0.01 , HIGH FREQUENCY CUTOFF=1E9
*Elastic
200000., 0.3
*Plastic, hardening=COMBINED
400.,    0.
*Cyclic Hardening, parameters
400.,    100.,    20.
*Material, name=SD500
*Density
 7.85e-09,
*DAMPING, BAND LIMITED=<Damping_Ratio>, LOW FREQUENCY CUTOFF=0.01 , HIGH FREQUENCY CUTOFF=1E9 
*Elastic
200000., 0.3
*Plastic, hardening=COMBINED
500.,    0.
*Cyclic Hardening, parameters
500.,    100.,    20.
** 
** BOUNDARY CONDITIONS
** 
** Name: Bottom_Fix Type: Symmetry/Antisymmetry/Encastre
*Boundary
Bottom_Fix_Set, PINNED
** Name: RP_Fix Type: Displacement/Rotation
*Boundary
RP_Measure, 1, 1
RP_Measure, 3, 3
RP_Measure, 4, 4
RP_Measure, 5, 5
RP_Measure, 6, 6
** ----------------------------------------------------------------
** 
** STEP: Gravity_and_Compression
** 
*Step, name=Gravity_and_Compression, nlgeom=YES
*Dynamic, Explicit
, 1.
*Bulk Viscosity
0.06, 1.2
** Mass Scaling: Semi-Automatic
**               Whole Model
*Variable Mass Scaling, dt=0.0002, type=below min, frequency=1
** 
** LOADS
** 
** Name: Load-1   Type: Gravity
*Dload, amplitude=Static
, GRAV, 9800., 0., -1., 0.
** Name: Load-2   Type: Concentrated force
*Cload, follower, amplitude=Static
RP_Measure, 2, -1.5e+06
** 
** OUTPUT REQUESTS
** 
**Restart, write, number interval=1, time marks=NO
** 
** FIELD OUTPUT: F-Output-1
** 
*Output, field, number interval=10
*Node Output
CF, RF, U
*Element Output, directions=YES
DMICRT, LE, PE, PEEQ, PEMAG, S, STATUS
*Contact Output
CDISP, CSTRESS
** 
** HISTORY OUTPUT: H-Output-3
** 
*Output, history
*Node Output, nset=Disp_measure_RP
U1, U2, U3, UR1, UR2, UR3
** 
** HISTORY OUTPUT: H-Output-2
** 
*Node Output, nset=RP_Measure
RF1, RF2, RF3, RM1, RM2, RM3, U1, U2
U3, UR1, UR2, UR3
** 
** HISTORY OUTPUT: H-Output-1
** 
*Output, history, variable=PRESELECT, frequency=1
*End Step
** ----------------------------------------------------------------
** 
** STEP: Cyclic_Loading
** 
*Step, name=Cyclic_Loading, nlgeom=YES
*Dynamic, Explicit
, 900.
*Bulk Viscosity
0.06, 1.2
** Mass Scaling: Semi-Automatic
**               Whole Model
*Variable Mass Scaling, dt=<DT>, type=below min, frequency=1
** 
** BOUNDARY CONDITIONS
** 
** Name: Bottom_Fix Type: Symmetry/Antisymmetry/Encastre
*Boundary, op=NEW
Bottom_Fix_Set, PINNED
** Name: RP_Fix Type: Displacement/Rotation
*Boundary, op=NEW
** Name: Rp_Move Type: Displacement/Rotation
*Boundary, op=NEW, amplitude=Amp_RC750
RP_Measure, 1, 1, 1.
RP_Measure, 3, 3
** 
** LOADS
** 
** Name: Viscous_Pressure   Type: Pressure
*Dsload
Vis_Press, VP, <VP>
** 
** OUTPUT REQUESTS
** 
**Restart, write, number interval=1, time marks=NO
** 
** FIELD OUTPUT: F-Output-1
** 
*Output, field, number interval=10
*Node Output
CF, RF, U
*Element Output, directions=YES
DMICRT, LE, PE, PEEQ, PEMAG, S, STATUS
*Contact Output
CDISP, CSTRESS
** 
** HISTORY OUTPUT: H-Output-3
** 
*Output, history, Time interval=<Output_dt>
*Node Output, nset=Disp_measure_RP
U1, U2, U3, UR1, UR2, UR3
** 
** HISTORY OUTPUT: H-Output-2
** 
*Node Output, nset=RP_Measure
RF1, RF2, RF3, RM1, RM2, RM3, U1, U2
U3, UR1, UR2, UR3
** 
** HISTORY OUTPUT: H-Output-1
** 
*Output, history, variable=PRESELECT, Time interval=<Output_dt>
*End Step