*Heading
** Job name: 3-Point-Bending Model name: Skin_SM355_Damage_Ref
** Generated by: Abaqus/CAE 2023
*Preprint, echo=NO, model=NO, history=NO, contact=NO
**
** PARTS
**
*Part, name=Part
*Node
      1,   14.1436148,   128.683563,           0.
      2,   6.38506651,         150.,           0.
      3,         150.,         150.,           0.
      4,         150.,   6.38506651,           0.
      5,   128.683563,   14.1436148,           0.
      6,   126.631439,   8.50545979,           0.
      7,         150.,           0.,           0.
      8,           0.,           0.,           0.
      9,           0.,         150.,           0.
     10,   8.50545979,   126.631439,           0.
     11,   6.38506651,         150.,        1800.
     12,   14.1436148,   128.683563,        1800.
     13,   8.50545979,   126.631439,        1800.
     14,           0.,         150.,        1800.
     15,           0.,           0.,        1800.
     16,         150.,           0.,        1800.
     17,   126.631439,   8.50545979,        1800.
     18,   128.683563,   14.1436148,        1800.
     19,         150.,   6.38506651,        1800.
     20,         150.,         150.,        1800.
** ... 21757 like lines cut
*Element, type=C3D8R
   1,  2173,    67,     2,     1,  7153,  3475,   682,   564
   2,  2215,  2223,  2166,  2218,  7195,  7203,  7146,  7198
   3,     7,     6,  2168,    79,   328,   269,  7148,  2296
   4,  2222,  2212,    74,    73,  7202,  7192,  3120,  3121
   5,  2179,  2220,     1,    10,  7159,  7200,   564,   505
   6,  2183,    85,    84,  2178,  7163,  2290,  2291,  7158
   7,  2186,  2166,  2223,  2197,  7166,  7146,  7203,  7177
   8,    72,  2222,    73,     3,  3470,  7202,  3121,   565
   9,    71,  2169,  2222,    72,  3471,  7149,  7202,  3470
  10,    76,    75,  2192,  2174,  3118,  3119,  7172,  7154
  11,  2192,  2204,  2189,  2174,  7172,  7184,  7169,  7154
  12,    68,  2172,  2171,    69,  3474,  7152,  7151,  3473
  13,    67,  2173,  2172,    68,  3475,  7153,  7152,  3474
  14,  2192,  2212,  2201,  2204,  7172,  7192,  7181,  7184
  15,    79,  2168,  2215,    80,  2296,  7148,  7195,  2295
  16,    78,    77,  2175,  2176,  3116,  3117,  7155,  7156
  17,  2176,     5,     4,    78,  7156,   210,    93,  3116
  18,  2167,    83,    82,  2177,  7147,  2292,  2293,  7157
  19,  2198,  2216,  2217,  2180,  7178,  7196,  7197,  7160
  20,  2190,  2210,  2204,  2201,  7170,  7190,  7184,  7181
** ... 18940 like lines cut
*Element, type=S4R
18961,   58,   57, 2094, 2095
18962, 2095, 2094, 2093, 2096
18963, 2096, 2093, 2092, 2097
18964, 2097, 2092, 2091, 2098
18965, 2098, 2091, 2090, 2099
18966, 2099, 2090, 2089, 2100
18967, 2100, 2089, 2088, 2101
18968, 2101, 2088, 2087, 2102
18969, 2102, 2087, 2086, 2103
18970, 2103, 2086, 2085, 2104
18971, 2104, 2085, 2084, 2105
18972, 2105, 2084, 2083, 2106
18973, 2106, 2083, 2082, 2107
18974, 2107, 2082, 2081, 2108
18975, 2108, 2081, 2080, 2109
18976, 2109, 2080, 2079, 2110
18977, 2110, 2079, 2078, 2111
18978, 2111, 2078, 2077, 2112
18979, 2112, 2077, 2076, 2113
18980, 2113, 2076, 2075, 2114
** ... 3820 like lines cut
*Nset, nset=CONC, generate
     1,  21777,      1
*Elset, elset=CONC, generate
     1,  18960,      1
*Nset, nset=STEEL
    1,    2,    3,    4,    5,   11,   12,   18,   19,   20,   21,   22,   23,   24,   25,   29
   30,   34,   35,   36,   37,   38,   39,   40,   41,   45,   46,   50,   51,   52,   53,   54
   57,   58,   59,   60,   61,   62,   63,   64,   67,   68,   69,   70,   71,   72,   73,   74
   75,   76,   77,   78,   93,   94,   95,   96,   97,   98,   99,  100,  101,  102,  103,  104
  105,  106,  107,  108,  109,  110,  111,  112,  113,  114,  115,  116,  117,  118,  119,  120
  121,  122,  123,  124,  125,  126,  127,  128,  129,  130,  131,  132,  133,  134,  135,  136
  137,  138,  139,  140,  141,  142,  143,  144,  145,  146,  147,  148,  149,  150,  151,  152
  153,  154,  155,  156,  157,  158,  159,  160,  161,  162,  163,  164,  165,  166,  167,  168
  169,  170,  171,  172,  173,  174,  175,  176,  177,  178,  179,  180,  181,  182,  183,  184
  185,  186,  187,  188,  189,  190,  191,  192,  193,  194,  195,  196,  197,  198,  199,  200
  201,  202,  203,  204,  205,  206,  207,  208,  209,  210,  506,  507,  508,  509,  510,  511
  512,  513,  514,  515,  516,  517,  518,  519,  520,  521,  522,  523,  524,  525,  526,  527
  528,  529,  530,  531,  532,  533,  534,  535,  536,  537,  538,  539,  540,  541,  542,  543
  544,  545,  546,  547,  548,  549,  550,  551,  552,  553,  554,  555,  556,  557,  558,  559
  560,  561,  562,  563,  564,  565,  566,  567,  568,  569,  570,  571,  572,  573,  574,  575
  576,  577,  578,  579,  580,  581,  582,  583,  584,  585,  586,  587,  588,  589,  590,  591
  592,  593,  594,  595,  596,  597,  598,  599,  600,  601,  602,  603,  604,  605,  606,  607
  608,  609,  610,  611,  612,  613,  614,  615,  616,  617,  618,  619,  620,  621,  622,  623
  624,  625,  626,  627,  628,  629,  630,  631,  632,  633,  634,  635,  636,  637,  638,  639
  640,  641,  642,  643,  644,  645,  646,  647,  648,  649,  650,  651,  652,  653,  654,  655
** ... 240 like lines cut
*Elset, elset=STEEL, generate
 18961,  22800,      1
*Nset, nset=_Skin-1, internal
    1,    2,    3,    4,    5,   11,   12,   18,   19,   20,   21,   22,   23,   24,   25,   29
   30,   34,   35,   36,   37,   38,   39,   40,   41,   45,   46,   50,   51,   52,   53,   54
   57,   58,   59,   60,   61,   62,   63,   64,   67,   68,   69,   70,   71,   72,   73,   74
   75,   76,   77,   78,   93,   94,   95,   96,   97,   98,   99,  100,  101,  102,  103,  104
  105,  106,  107,  108,  109,  110,  111,  112,  113,  114,  115,  116,  117,  118,  119,  120
  121,  122,  123,  124,  125,  126,  127,  128,  129,  130,  131,  132,  133,  134,  135,  136
  137,  138,  139,  140,  141,  142,  143,  144,  145,  146,  147,  148,  149,  150,  151,  152
  153,  154,  155,  156,  157,  158,  159,  160,  161,  162,  163,  164,  165,  166,  167,  168
  169,  170,  171,  172,  173,  174,  175,  176,  177,  178,  179,  180,  181,  182,  183,  184
  185,  186,  187,  188,  189,  190,  191,  192,  193,  194,  195,  196,  197,  198,  199,  200
  201,  202,  203,  204,  205,  206,  207,  208,  209,  210,  506,  507,  508,  509,  510,  511
  512,  513,  514,  515,  516,  517,  518,  519,  520,  521,  522,  523,  524,  525,  526,  527
  528,  529,  530,  531,  532,  533,  534,  535,  536,  537,  538,  539,  540,  541,  542,  543
  544,  545,  546,  547,  548,  549,  550,  551,  552,  553,  554,  555,  556,  557,  558,  559
  560,  561,  562,  563,  564,  565,  566,  567,  568,  569,  570,  571,  572,  573,  574,  575
  576,  577,  578,  579,  580,  581,  582,  583,  584,  585,  586,  587,  588,  589,  590,  591
  592,  593,  594,  595,  596,  597,  598,  599,  600,  601,  602,  603,  604,  605,  606,  607
  608,  609,  610,  611,  612,  613,  614,  615,  616,  617,  618,  619,  620,  621,  622,  623
  624,  625,  626,  627,  628,  629,  630,  631,  632,  633,  634,  635,  636,  637,  638,  639
  640,  641,  642,  643,  644,  645,  646,  647,  648,  649,  650,  651,  652,  653,  654,  655
** ... 240 like lines cut
*Elset, elset=_Skin-1, internal, generate
 18961,  22800,      1
** Section: Concrete
*Solid Section, elset=CONC, controls=EC-1, material=CDP
,
** Section: Steel
*Shell Section, elset=STEEL, material=Steel, controls=EC-1, offset=SNEG
6., 5
*End Part
**  
*Part, name=Support
*End Part
**  
**
** ASSEMBLY
**
*Assembly, name=Assembly
**  
*Instance, name=Part-1-1, part=Part
*End Instance
**  
*Instance, name=Support-1, part=Support
        105.,        -356.,         200.
        105.,        -356.,         200.,         105.,        -356., 201.000000012688, 89.9999992730282
*Node
      1,           0.,         105.,           0.
*Nset, nset=Support-1-RefPt_, internal
1, 
*Surface, type=REVOLUTION, name=Support_Contact
START,         200.,         260.
 LINE,         200.,         -50.
*Rigid Body, ref node=Support-1-RefPt_, analytical surface=Support_Contact
*End Instance
**  
*Instance, name=Support-2, part=Support
        105.,        -356.,        1600.
        105.,        -356.,        1600.,         105.,        -356., 1601.00000001269, 89.9999992730282
*Node
      1,           0.,         105.,           0.
*Nset, nset=Support-2-RefPt_, internal
1, 
*Surface, type=REVOLUTION, name=Support_Contact
START,         200.,         260.
 LINE,         200.,         -50.
*Rigid Body, ref node=Support-2-RefPt_, analytical surface=Support_Contact
*End Instance
**  
*Instance, name=Support-3, part=Support
        105.,         356.,         900.
        105.,         356.,         900.,         105.,         356., 901.000000012688, 89.9999992730282
*Node
      1,           0.,         105.,           0.
*Nset, nset=Support-3-RefPt_, internal
1, 
*Surface, type=REVOLUTION, name=Support_Contact
START,         200.,         260.
 LINE,         200.,         -50.
*Rigid Body, ref node=Support-3-RefPt_, analytical surface=Support_Contact
*End Instance
**  
*Nset, nset=Jig_Move, instance=Support-3
 1,
*Nset, nset=Support_Fix, instance=Support-1
 1,
*Nset, nset=Support_Fix, instance=Support-2
 1,
*Elset, elset=_END_S2, internal, instance=Part-1-1
  9638,  9639,  9640,  9641,  9642,  9643,  9644,  9645,  9646,  9647,  9648,  9649,  9650,  9651,  9652,  9653
  9654,  9655,  9656,  9657,  9658,  9659,  9660,  9661,  9662,  9663,  9664,  9665,  9666,  9667,  9668,  9669
  9670,  9671,  9672,  9673,  9674,  9675,  9676,  9677,  9678,  9679,  9680,  9681,  9682,  9683,  9684,  9685
  9686,  9687,  9688,  9689,  9690,  9691,  9692,  9693,  9694,  9695,  9696,  9697,  9698,  9699,  9700,  9701
  9702,  9703,  9704,  9705,  9706,  9707,  9708,  9709,  9710,  9711,  9712,  9713,  9714,  9715,  9716,  9717
  9718,  9719,  9720, 14559, 14560, 14561, 14562, 14563, 14564, 14565, 14566, 14567, 14568, 14569, 14570, 14571
 14572, 14573, 14574, 14575, 14576, 14577, 14578, 14579, 14580, 14581, 14582, 14583, 14584, 14585, 14586, 14587
 14588, 14589, 14590, 14591, 14592, 14593, 14594, 14595, 14596, 14597, 14598, 14599, 14600, 14601, 14602, 14603
 14604, 14605, 14606, 14607, 14608, 14609, 14610, 14611, 14612, 14613, 14614, 14615, 14616, 14617, 14618, 14619
 14620, 14621, 14622, 14623, 14624, 14625, 14626, 14627, 14628, 14629, 14630, 14631, 14632, 14633, 14634, 14635
 14636, 14637, 14638, 14639, 14640, 18889, 18890, 18891, 18892, 18893, 18894, 18895, 18896, 18897, 18898, 18899
 18900, 18901, 18902, 18903, 18904, 18905, 18906, 18907, 18908, 18909, 18910, 18911, 18912, 18913, 18914, 18915
 18916, 18917, 18918, 18919, 18920, 18921, 18922, 18923, 18924, 18925, 18926, 18927, 18928, 18929, 18930, 18931
 18932, 18933, 18934, 18935, 18936, 18937, 18938, 18939, 18940, 18941, 18942, 18943, 18944, 18945, 18946, 18947
 18948, 18949, 18950, 18951, 18952, 18953, 18954, 18955, 18956, 18957, 18958, 18959, 18960
*Elset, elset=_END_S1, internal, instance=Part-1-1, generate
  1,  79,   1
*Surface, type=ELEMENT, name=END
_END_S2, S2
_END_S1, S1
*End Assembly
** 
** ELEMENT CONTROLS
** 
*Section Controls, name=EC-1, ELEMENT DELETION=YES, MAX DEGRADATION=0.95
1., 1., 1.
** 
** MATERIALS
** 
*Include, input=CDP_Mat.inp
**
*Material, name=Steel
*Damage Initiation, criterion=DUCTILE
 0.0764969,0.,0.
*Damage Evolution, type=ENERGY
 308.05,
*Density
 7.85e-09,
*Elastic
200000., 0.3
*Plastic
    430.,   0.
 552.288, 0.05
 606.563,  0.1
 648.882, 0.15
 684.927,  0.2
 716.925, 0.25
 746.029,  0.3
 772.927, 0.35
 798.071,  0.4
** 
** INTERACTION PROPERTIES
** 
*Surface Interaction, name=IntProp-1
1.,
*Friction
 0.1,
*Surface Behavior, pressure-overclosure=HARD
**
*Amplitude, name=Down, smooth=0.2 
0,	0,	1,	1
**
** BOUNDARY CONDITIONS
** 
** Name: Jig_Move Type: Displacement/Rotation
*Boundary
Jig_Move, 1, 1
Jig_Move, 2, 2
Jig_Move, 3, 3
Jig_Move, 4, 4
Jig_Move, 5, 5
Jig_Move, 6, 6
** Name: Support_Fix Type: Symmetry/Antisymmetry/Encastre
*Boundary
Support_Fix, ENCASTRE
** 
** INTERACTIONS
** 
** Interaction: GenCont
*Contact
*Contact Inclusions, ALL EXTERIOR
*Contact Property Assignment
 ,  , IntProp-1
** ----------------------------------------------------------------
** 
** STEP: Three-Point-Bending
** 
*Step, name=Three-Point-Bending, nlgeom=YES
*Dynamic, Explicit
, 1.
**
*Bulk Viscosity
0.06, 1.2
** Mass Scaling: Semi-Automatic
**               Whole Model
*Variable Mass Scaling, dt=1E-5, type=below min, frequency=1 
** BOUNDARY CONDITIONS
** 
** Name: Jig_Move Type: Displacement/Rotation
*Boundary, amplitude=Down
Jig_Move, 2, 2, -30.
** 
** OUTPUT REQUESTS
** 
*Restart, write, overlay
** 
** FIELD OUTPUT: F-Output-1
** 
*Output, field, number interval=20, time marks=NO
*Node Output
A, CF, RF, U, V
*Element Output, directions=YES
LE, PE, PEEQ, PEMAG, S, STATUS
*Contact Output
CDISP, CSTRESS
** 
** HISTORY OUTPUT: H-Output-2
** 
*Output, history, frequency=1
*Node Output, nset=Jig_Move
RF2, U2
** 
** HISTORY OUTPUT: H-Output-1
** 
*Output, history, variable=PRESELECT
*End Step
