**************************
*** CDP Mat Definition ***
**************************
**E: 30000.0, S_cu: 26.5, e_cu: 0.0013, e_63: 0.0045, Alpha: 1.359, S_tu: 2.62, e_end: 0.00051, Beta: 1.642**
*Material, name=CDP
*Density
2.4e-09
*Elastic
30000.0, 0.2
*Concrete Damaged Plasticity, REF LENGTH=1.0
40., 0.1, 1.16, 0.66667, 0.00
*Concrete Compression Hardening
1.400000e+01,0.000000e+00
1.521875e+01,1.041667e-06
1.637500e+01,4.166667e-06
1.746875e+01,9.375000e-06
1.850000e+01,1.666667e-05
1.946875e+01,2.604167e-05
2.037500e+01,3.750000e-05
2.121875e+01,5.104167e-05
2.200000e+01,6.666667e-05
2.271875e+01,8.437500e-05
2.337500e+01,1.041667e-04
2.396875e+01,1.260417e-04
2.450000e+01,1.500000e-04
2.496875e+01,1.760417e-04
2.537500e+01,2.041667e-04
2.571875e+01,2.343750e-04
2.600000e+01,2.666667e-04
2.621875e+01,3.010417e-04
2.637500e+01,3.375000e-04
2.646875e+01,3.760417e-04
** ... 50 like lines cut
*Concrete Tension Stiffening, type=DISPLACEMENT
2.620000e+00,0.000000e+00
2.532780e+00,1.153319e-05
2.446719e+00,2.302775e-05
2.361825e+00,3.448339e-05
2.278108e+00,4.589981e-05
2.195577e+00,5.727669e-05
2.114241e+00,6.861373e-05
2.034111e+00,7.991058e-05
1.955197e+00,9.116692e-05
1.877508e+00,1.023824e-04
1.801057e+00,1.135566e-04
1.725854e+00,1.246892e-04
1.651911e+00,1.357798e-04
1.579240e+00,1.468281e-04
1.507853e+00,1.578335e-04
1.437764e+00,1.687956e-04
1.368987e+00,1.797141e-04
1.301534e+00,1.905883e-04
1.235422e+00,2.014179e-04
1.170664e+00,2.122023e-04
** ... 27 like lines cut
*Concrete Compression Damage, tension recovery=1.0
0.000000e+00,0.000000e+00
0.000000e+00,1.041667e-06
0.000000e+00,4.166667e-06
0.000000e+00,9.375000e-06
0.000000e+00,1.666667e-05
0.000000e+00,2.604167e-05
0.000000e+00,3.750000e-05
0.000000e+00,5.104167e-05
0.000000e+00,6.666667e-05
0.000000e+00,8.437500e-05
0.000000e+00,1.041667e-04
0.000000e+00,1.260417e-04
0.000000e+00,1.500000e-04
0.000000e+00,1.760417e-04
0.000000e+00,2.041667e-04
0.000000e+00,2.343750e-04
0.000000e+00,2.666667e-04
0.000000e+00,3.010417e-04
0.000000e+00,3.375000e-04
0.000000e+00,3.760417e-04
** ... 50 like lines cut
*Concrete Tension Damage, type=DISPLACEMENT, compression recovery=0.0
0.000000e+00,0.000000e+00
3.329014e-02,1.153319e-05
6.613797e-02,2.302775e-05
9.854013e-02,3.448339e-05
1.304932e-01,4.589981e-05
1.619936e-01,5.727669e-05
1.930377e-01,6.861373e-05
2.236217e-01,7.991058e-05
2.537418e-01,9.116692e-05
2.833938e-01,1.023824e-04
3.125737e-01,1.135566e-04
3.412772e-01,1.246892e-04
3.694997e-01,1.357798e-04
3.972368e-01,1.468281e-04
4.244835e-01,1.578335e-04
4.512350e-01,1.687956e-04
4.774860e-01,1.797141e-04
5.032312e-01,1.905883e-04
5.284650e-01,2.014179e-04
5.531815e-01,2.122023e-04
** ... 27 like lines cut
*************************
*** End of Definition ***
*************************
